/*--------------------------------*- C++ -*----------------------------------*\
  =========                 |
  \\      /  F ield         | OpenFOAM: The Open Source CFD Toolbox
   \\    /   O peration     | Website:  https://openfoam.org
    \\  /    A nd           | Version:  8
     \\/     M anipulation  |
\*---------------------------------------------------------------------------*/
FoamFile
{
    version     2.0;
    format      ascii;
    class       dictionary;
    object      blockMeshDict;
}
// * * * * * * * * * * * * * * * * * * * * * * * * * * * * * * * * * * * * * //

convertToMeters 1.0;

vertices
(
    (0 0 0)
    (4 0 0)
    (4 2 0)
    (0 2 0)
    (0 0 0.1)
    (4 0 0.1)
    (4 2 0.1)
    (0 2 0.1)
);

blocks
(
    hex (0 1 2 3 4 5 6 7) (50 50 1) simpleGrading (1 1 1)
);

edges
(
);

boundary
(
    xMin
    {
        type patch;
        faces
        (
	    (0 4 7 3)
        );
    }
    xMax
    {
        type patch;
        faces
        (
            (2 6 5 1)
        );
    }
    yMin
    {
	type wall;
        faces
        (
            (1 5 4 0)
        );
    }
    yMax
    {
	type wall;
        faces
        (
            (3 7 6 2)
        );
    }
    frontAndBack
    {
        type empty;
        faces
        (
            
            (0 3 2 1)
            (4 5 6 7)
            
        );
    }
);



// ************************************************************************* //
